2024_89_CemigReconfigurationCases/1_AlimsCemig/MRND218/MRND218CargaBT_Dez.dss
new load.3000027062M1 bus1=RML1052749213.1.2.0,Phases=2,kv=0.22,kW=0.395,pf=0.92,Vminpu=0.92,Vmaxpu=1.5,model=1,daily=RES2_1,status=variable
new load.3000027063M1 bus1=RML1052749213.1.2.0,Phases=2,kv=0.22,kW=0.79,pf=0.92,Vminpu=0.92,Vmaxpu=1.5,model=1,daily=RES2_1,status=variable
new load.3000027064M1 bus1=RML1052749220.1.2.0,Phases=2,kv=0.22,kW=0.80234,pf=0.92,Vminpu=0.92,Vmaxpu=1.5,model=1,daily=RES2_1,status=variable
new load.3000027065M1 bus1=RML1052749220.1.2.0,Phases=2,kv=0.22,kW=0.54664,pf=0.92,Vminpu=0.92,Vmaxpu=1.5,model=1,daily=RES1_1,status=variable
new load.3000027066M1 bus1=RML1052749269.1.2.0,Phases=2,kv=0.22,kW=0.62022,pf=0.92,Vminpu=0.92,Vmaxpu=1.5,model=1,daily=RES1_1,status=variable
new load.3000027067M1 bus1=RML1052749255.2.0,Phases=1,kv=0.127,kW=3.36554,pf=0.92,Vminpu=0.92,Vmaxpu=1.5,model=1,daily=RES3_1,status=variable
new load.3000027068M1 bus1=RML1052749234.1.0,Phases=1,kv=0.127,kW=0.68508,pf=0.92,Vminpu=0.92,Vmaxpu=1.5,model=1,daily=RES2_1,status=variable
new load.3000027069M1 bus1=RML1052749262.2.0,Phases=1,kv=0.127,kW=0.11564,pf=0.92,Vminpu=0.92,Vmaxpu=1.5,model=1,daily=RES1_1,status=variable
new load.3000027070M1 bus1=RML1052749276.1.3.0,Phases=2,kv=0.22,kW=0.12614,pf=0.92,Vminpu=0.92,Vmaxpu=1.5,model=1,daily=RES1_1,status=variable
new load.3000027072M1 bus1=RML1052749325.1.2.0,Phases=2,kv=0.22,kW=0.65176,pf=0.92,Vminpu=0.92,Vmaxpu=1.5,model=1,daily=RES1_1,status=variable
new load.3000027073M1 bus1=RML1052749493.1.2.0,Phases=2,kv=0.22,kW=3.57446,pf=0.92,Vminpu=0.92,Vmaxpu=1.5,model=1,daily=RES4_1,status=variable
new load.3000027075M1 bus1=RML1052749465.1.3.0,Phases=2,kv=0.22,kW=6.07606,pf=0.92,Vminpu=0.92,Vmaxpu=1.5,model=1,daily=RES5_2,status=variable
new load.3000027076M1 bus1=RML1052749304.1.2.0,Phases=2,kv=0.22,kW=0.61102,pf=0.92,Vminpu=0.92,Vmaxpu=1.5,model=1,daily=RES2_1,status=variable
new load.3000027077M1 bus1=RML1052749304.1.2.0,Phases=2,kv=0.22,kW=1.28824,pf=0.92,Vminpu=0.92,Vmaxpu=1.5,model=1,daily=RES3_1,status=variable
new load.3000027078M1 bus1=RML1052749304.1.2.0,Phases=2,kv=0.22,kW=0.7036,pf=0.92,Vminpu=0.92,Vmaxpu=1.5,model=1,daily=RES2_1,status=variable
new load.3000027079M1 bus1=RML1052749318.2.0,Phases=1,kv=0.127,kW=0.5992,pf=0.92,Vminpu=0.92,Vmaxpu=1.5,model=1,daily=RES1_1,status=variable
new load.3000027080M1 bus1=RML1052749332.1.2.0,Phases=2,kv=0.22,kW=1.04922,pf=0.92,Vminpu=0.92,Vmaxpu=1.5,model=1,daily=RES2_1,status=variable
new load.3000027081M1 bus1=RML1052749332.1.2.0,Phases=2,kv=0.22,kW=1.69082,pf=0.92,Vminpu=0.92,Vmaxpu=1.5,model=1,daily=RES3_1,status=variable
new load.3000027082M1 bus1=RML1052749360.1.2.0,Phases=2,kv=0.22,kW=2.6892,pf=0.92,Vminpu=0.92,Vmaxpu=1.5,model=1,daily=RES3_1,status=variable
new load.3000027083M1 bus1=RML1052749346.1.2.0,Phases=2,kv=0.22,kW=0.77766,pf=0.92,Vminpu=0.92,Vmaxpu=1.5,model=1,daily=RES2_1,status=variable
new load.3000027084M1 bus1=RML1052749346.1.2.0,Phases=2,kv=0.22,kW=4.09018,pf=0.92,Vminpu=0.92,Vmaxpu=1.5,model=1,daily=RES3_1,status=variable
new load.3000027085M1 bus1=RML1060426244.1.0,Phases=1,kv=0.127,kW=1.01836,pf=0.92,Vminpu=0.92,Vmaxpu=1.5,model=1,daily=RES2_1,status=variable
new load.3000027086M1 bus1=RML1052749381.1.2.0,Phases=2,kv=0.22,kW=1.06156,pf=0.92,Vminpu=0.92,Vmaxpu=1.5,model=1,daily=RES2_1,status=variable
new load.3000027087M1 bus1=RML1052749381.1.2.0,Phases=2,kv=0.22,kW=0.67274,pf=0.92,Vminpu=0.92,Vmaxpu=1.5,model=1,daily=RES2_1,status=variable
new load.3000027088M1 bus1=RML1052749395.1.2.0,Phases=2,kv=0.22,kW=2.94686,pf=0.92,Vminpu=0.92,Vmaxpu=1.5,model=1,daily=RES3_1,status=variable
new load.3000027089M1 bus1=RML1052749409.1.2.0,Phases=2,kv=0.22,kW=0.7036,pf=0.92,Vminpu=0.92,Vmaxpu=1.5,model=1,daily=RES2_1,status=variable
new load.3000027090M1 bus1=RML1052749409.1.2.0,Phases=2,kv=0.22,kW=3.7359,pf=0.92,Vminpu=0.92,Vmaxpu=1.5,model=1,daily=RES3_1,status=variable
new load.3000027091M1 bus1=RML1052749444.1.2.0,Phases=2,kv=0.22,kW=1.17266,pf=0.92,Vminpu=0.92,Vmaxpu=1.5,model=1,daily=RES2_1,status=variable
new load.3000027092M1 bus1=RML1052749437.2.0,Phases=1,kv=0.127,kW=3.36554,pf=0.92,Vminpu=0.92,Vmaxpu=1.5,model=1,daily=RES3_1,status=variable
new load.3000027093M1 bus1=RML1052753231.2.0,Phases=1,kv=0.127,kW=0.7674,pf=0.92,Vminpu=0.92,Vmaxpu=1.5,model=1,daily=RES1_1,status=variable
new load.3000027094M1 bus1=RML1052753238.2.0,Phases=1,kv=0.127,kW=0.55714,pf=0.92,Vminpu=0.92,Vmaxpu=1.5,model=1,daily=RES1_1,status=variable
new load.3000027095M1 bus1=RML1052753252.1.3.0,Phases=2,kv=0.22,kW=0.74636,pf=0.92,Vminpu=0.92,Vmaxpu=1.5,model=1,daily=RES1_1,status=variable
new load.3000027096M1 bus1=RML1052753329.1.2.0,Phases=2,kv=0.22,kW=4.63768,pf=0.92,Vminpu=0.92,Vmaxpu=1.5,model=1,daily=RES3_1,status=variable
new load.3000027097M1 bus1=RML1052753329.1.2.0,Phases=2,kv=0.22,kW=0.20814,pf=0.92,Vminpu=0.92,Vmaxpu=1.5,model=1,daily=COM1_2,status=variable
new load.3000027098M1 bus1=RML1052753322.1.2.3.0,Phases=3,kv=0.22,kW=0.79618,pf=0.92,Vminpu=0.92,Vmaxpu=1.5,model=1,daily=RES2_1,status=variable
new load.3000027099M1 bus1=RML1052753322.1.2.3.0,Phases=3,kv=0.22,kW=0.76532,pf=0.92,Vminpu=0.92,Vmaxpu=1.5,model=1,daily=RES2_1,status=variable
new load.3000027100M1 bus1=RML1052753322.1.2.3.0,Phases=3,kv=0.22,kW=0.53078,pf=0.92,Vminpu=0.92,Vmaxpu=1.5,model=1,daily=RES2_1,status=variable
new load.3000027101M1 bus1=RML1052753280.1.2.0,Phases=2,kv=0.22,kW=0.59868,pf=0.92,Vminpu=0.92,Vmaxpu=1.5,model=1,daily=RES2_1,status=variable
new load.3000027102M1 bus1=RML1052753280.1.2.0,Phases=2,kv=0.22,kW=0.61102,pf=0.92,Vminpu=0.92,Vmaxpu=1.5,model=1,daily=RES2_1,status=variable
new load.3000027103M1 bus1=RML1052753273.1.3.0,Phases=2,kv=0.22,kW=0.88876,pf=0.92,Vminpu=0.92,Vmaxpu=1.5,model=1,daily=RES2_1,status=variable
new load.3000027104M1 bus1=RML1052753273.1.3.0,Phases=2,kv=0.22,kW=0.78384,pf=0.92,Vminpu=0.92,Vmaxpu=1.5,model=1,daily=RES2_1,status=variable
new load.3000027105M1 bus1=RML1052753336.1.2.3.0,Phases=3,kv=0.22,kW=0.8332,pf=0.92,Vminpu=0.92,Vmaxpu=1.5,model=1,daily=RES2_1,status=variable
new load.3000027106M1 bus1=RML1052754778.2.3.0,Phases=2,kv=0.22,kW=0.72828,pf=0.92,Vminpu=0.92,Vmaxpu=1.5,model=1,daily=RES2_1,status=variable
new load.3000027107M1 bus1=RML1052754750.1.2.3.0,Phases=3,kv=0.22,kW=0.74062,pf=0.92,Vminpu=0.92,Vmaxpu=1.5,model=1,daily=RES2_1,status=variable
new load.3000027109M1 bus1=RML1052754757.3.0,Phases=1,kv=0.127,kW=0.85148,pf=0.92,Vminpu=0.92,Vmaxpu=1.5,model=1,daily=RES1_1,status=variable
new load.3000027110M1 bus1=RML1052754687.1.2.0,Phases=2,kv=0.22,kW=0.20984,pf=0.92,Vminpu=0.92,Vmaxpu=1.5,model=1,daily=RES2_1,status=variable
new load.3000027111M1 bus1=RML1052754708.1.2.0,Phases=2,kv=0.22,kW=0.01052,pf=0.92,Vminpu=0.92,Vmaxpu=1.5,model=1,daily=RES1_1,status=variable
new load.3000027112M1 bus1=RML1052754715.1.2.0,Phases=2,kv=0.22,kW=3.7359,pf=0.92,Vminpu=0.92,Vmaxpu=1.5,model=1,daily=RES3_1,status=variable
new load.3000027113M1 bus1=RML1052754722.3.0,Phases=1,kv=0.127,kW=0.84556,pf=0.92,Vminpu=0.92,Vmaxpu=1.5,model=1,daily=RES2_1,status=variable
new load.3000027114M1 bus1=RML1052753119.1.3.0,Phases=2,kv=0.22,kW=3.84862,pf=0.92,Vminpu=0.92,Vmaxpu=1.5,model=1,daily=RES3_1,status=variable
new load.3000027115M1 bus1=RML1052753112.2.3.0,Phases=2,kv=0.22,kW=0.23694,pf=0.92,Vminpu=0.92,Vmaxpu=1.5,model=1,daily=COM1_2,status=variable
new load.3000027116M1 bus1=RML1052753154.1.2.0,Phases=2,kv=0.22,kW=3.6876,pf=0.92,Vminpu=0.92,Vmaxpu=1.5,model=1,daily=RES3_1,status=variable
new load.3000027117M1 bus1=RML1052753133.1.2.3.0,Phases=3,kv=0.22,kW=0.46722,pf=0.92,Vminpu=0.92,Vmaxpu=1.5,model=1,daily=COM1_2,status=variable
new load.3000027119M1 bus1=RML1052944828.1.2.3.0,Phases=3,kv=0.22,kW=0.79,pf=0.92,Vminpu=0.92,Vmaxpu=1.5,model=1,daily=RES2_1,status=variable
new load.3000027120M1 bus1=RML1052754729.1.2.3.0,Phases=3,kv=0.22,kW=0.53696,pf=0.92,Vminpu=0.92,Vmaxpu=1.5,model=1,daily=RES2_1,status=variable
new load.3000027122M1 bus1=RML1052754736.1.2.0,Phases=2,kv=0.22,kW=0.66656,pf=0.92,Vminpu=0.92,Vmaxpu=1.5,model=1,daily=RES2_1,status=variable
new load.3000027123M1 bus1=RML1052754764.1.2.3.0,Phases=3,kv=0.22,kW=0.40584,pf=0.92,Vminpu=0.92,Vmaxpu=1.5,model=1,daily=COM2_1,status=variable
new load.3000027125M1 bus1=RML1052754820.1.2.3.0,Phases=3,kv=0.22,kW=0.75914,pf=0.92,Vminpu=0.92,Vmaxpu=1.5,model=1,daily=RES2_1,status=variable
new load.3000027126M1 bus1=RML1052754834.1.3.0,Phases=2,kv=0.22,kW=3.1723,pf=0.92,Vminpu=0.92,Vmaxpu=1.5,model=1,daily=RES3_1,status=variable
new load.3000027127M1 bus1=RML1052754848.1.2.3.0,Phases=3,kv=0.22,kW=0.62336,pf=0.92,Vminpu=0.92,Vmaxpu=1.5,model=1,daily=RES2_1,status=variable
new load.3000027128M1 bus1=RML1052879154.1.2.0,Phases=2,kv=0.22,kW=1.00602,pf=0.92,Vminpu=0.92,Vmaxpu=1.5,model=1,daily=RES2_1,status=variable
new load.3000027129M1 bus1=RML1052754855.1.2.3.0,Phases=3,kv=0.22,kW=0.4814,pf=0.92,Vminpu=0.92,Vmaxpu=1.5,model=1,daily=RES2_1,status=variable
new load.3000027130M1 bus1=RML1052754855.1.2.3.0,Phases=3,kv=0.22,kW=0.22836,pf=0.92,Vminpu=0.92,Vmaxpu=1.5,model=1,daily=RES2_1,status=variable
new load.3000027131M1 bus1=RML1052754855.1.2.3.0,Phases=3,kv=0.22,kW=0.80944,pf=0.92,Vminpu=0.92,Vmaxpu=1.5,model=1,daily=RES1_1,status=variable
new load.3000027132M1 bus1=RML1052754890.1.2.0,Phases=2,kv=0.22,kW=3.2206,pf=0.92,Vminpu=0.92,Vmaxpu=1.5,model=1,daily=RES3_1,status=variable
new load.3000027133M1 bus1=RML1052754869.1.2.0,Phases=2,kv=0.22,kW=1.0122,pf=0.92,Vminpu=0.92,Vmaxpu=1.5,model=1,daily=RES2_1,status=variable
new load.3000027135M1 bus1=RML1052758670.1.3.0,Phases=2,kv=0.22,kW=0.70432,pf=0.92,Vminpu=0.92,Vmaxpu=1.5,model=1,daily=RES1_1,status=variable
new load.3000027136M1 bus1=RML1052758691.1.2.3.0,Phases=3,kv=0.22,kW=0.92508,pf=0.92,Vminpu=0.92,Vmaxpu=1.5,model=1,daily=RES1_1,status=variable
new load.3000027137M1 bus1=RML1052758817.2.3.0,Phases=2,kv=0.22,kW=3.28502,pf=0.92,Vminpu=0.92,Vmaxpu=1.5,model=1,daily=RES3_1,status=variable
new load.3000027138M1 bus1=RML1052758803.1.2.3.0,Phases=3,kv=0.22,kW=0.74062,pf=0.92,Vminpu=0.92,Vmaxpu=1.5,model=1,daily=RES2_1,status=variable
new load.3000027139M1 bus1=RML1052758803.1.2.3.0,Phases=3,kv=0.22,kW=0.62022,pf=0.92,Vminpu=0.92,Vmaxpu=1.5,model=1,daily=RES1_1,status=variable
new load.3000027140M1 bus1=RML1053000212.1.2.3.0,Phases=3,kv=0.22,kW=0.6833,pf=0.92,Vminpu=0.92,Vmaxpu=1.5,model=1,daily=RES1_1,status=variable
new load.3000027141M1 bus1=RML1052758754.1.2.3.0,Phases=3,kv=0.22,kW=4.17068,pf=0.92,Vminpu=0.92,Vmaxpu=1.5,model=1,daily=RES3_1,status=variable
new load.3000027142M1 bus1=RML1052758747.2.3.0,Phases=2,kv=0.22,kW=0.32712,pf=0.92,Vminpu=0.92,Vmaxpu=1.5,model=1,daily=RES2_1,status=variable
new load.3000027143M1 bus1=RML1052758747.2.3.0,Phases=2,kv=0.22,kW=0.84098,pf=0.92,Vminpu=0.92,Vmaxpu=1.5,model=1,daily=RES1_1,status=variable
new load.3000027144M1 bus1=RML1052755723.1.2.3.0,Phases=3,kv=0.22,kW=0.78842,pf=0.92,Vminpu=0.92,Vmaxpu=1.5,model=1,daily=RES1_1,status=variable
new load.3000027145M1 bus1=RML1052755688.1.2.0,Phases=2,kv=0.22,kW=0.49376,pf=0.92,Vminpu=0.92,Vmaxpu=1.5,model=1,daily=RES2_1,status=variable
new load.3000027146M1 bus1=RML1052755688.1.2.0,Phases=2,kv=0.22,kW=2.85024,pf=0.92,Vminpu=0.92,Vmaxpu=1.5,model=1,daily=RES3_1,status=variable
new load.3000027147M1 bus1=RML1052755681.1.2.3.0,Phases=3,kv=0.22,kW=1.00602,pf=0.92,Vminpu=0.92,Vmaxpu=1.5,model=1,daily=RES2_1,status=variable
new load.3000027148M1 bus1=RML1052755632.1.2.0,Phases=2,kv=0.22,kW=2.91464,pf=0.92,Vminpu=0.92,Vmaxpu=1.5,model=1,daily=RES3_1,status=variable
new load.3000027149M1 bus1=RML1052755639.1.2.3.0,Phases=3,kv=0.22,kW=2.54428,pf=0.92,Vminpu=0.92,Vmaxpu=1.5,model=1,daily=RES3_1,status=variable
new load.3000027150M1 bus1=RML1052755639.1.2.3.0,Phases=3,kv=0.22,kW=0.6604,pf=0.92,Vminpu=0.92,Vmaxpu=1.5,model=1,daily=RES2_1,status=variable
new load.3000027151M1 bus1=RML1052755618.1.2.3.0,Phases=3,kv=0.22,kW=0.37648,pf=0.92,Vminpu=0.92,Vmaxpu=1.5,model=1,daily=RES2_1,status=variable
new load.3000027152M1 bus1=RML1052753168.3.0,Phases=1,kv=0.127,kW=3.25282,pf=0.92,Vminpu=0.92,Vmaxpu=1.5,model=1,daily=RES3_1,status=variable
new load.3000027153M1 bus1=RML1053137230.1.2.3.0,Phases=3,kv=0.22,kW=0.58016,pf=0.92,Vminpu=0.92,Vmaxpu=1.5,model=1,daily=COM1_2,status=variable
new load.3000027154M1 bus1=RML1052755520.1.2.0,Phases=2,kv=0.22,kW=1.0986,pf=0.92,Vminpu=0.92,Vmaxpu=1.5,model=1,daily=RES2_1,status=variable
new load.3000027155M1 bus1=RML1052755520.1.2.0,Phases=2,kv=0.22,kW=0.18922,pf=0.92,Vminpu=0.92,Vmaxpu=1.5,model=1,daily=RES1_1,status=variable
new load.3000027156M1 bus1=RML1052755429.1.2.3.0,Phases=3,kv=0.22,kW=0.3518,pf=0.92,Vminpu=0.92,Vmaxpu=1.5,model=1,daily=RES2_1,status=variable
new load.3000027157M1 bus1=RML1060123704.2.3.0,Phases=2,kv=0.22,kW=0.18922,pf=0.92,Vminpu=0.92,Vmaxpu=1.5,model=1,daily=RES1_1,status=variable
new load.3000027158M1 bus1=RML1052755422.2.0,Phases=1,kv=0.127,kW=0.07406,pf=0.92,Vminpu=0.92,Vmaxpu=1.5,model=1,daily=RES2_1,status=variable
new load.3000027159M1 bus1=RML1052755408.1.0,Phases=1,kv=0.127,kW=2.81804,pf=0.92,Vminpu=0.92,Vmaxpu=1.5,model=1,daily=RES3_1,status=variable
new load.3000027160M1 bus1=RML1052755436.1.0,Phases=1,kv=0.127,kW=0.69126,pf=0.92,Vminpu=0.92,Vmaxpu=1.5,model=1,daily=RES2_1,status=variable
new load.3000027161M1 bus1=RML1052755443.1.2.0,Phases=2,kv=0.22,kW=0.23126,pf=0.92,Vminpu=0.92,Vmaxpu=1.5,model=1,daily=RES1_1,status=variable
new load.3000027162M1 bus1=RML1052755499.1.2.3.0,Phases=3,kv=0.22,kW=0.03154,pf=0.92,Vminpu=0.92,Vmaxpu=1.5,model=1,daily=RES1_1,status=variable
new load.3000027163M1 bus1=RML1052755506.2.3.0,Phases=2,kv=0.22,kW=2.91464,pf=0.92,Vminpu=0.92,Vmaxpu=1.5,model=1,daily=RES3_1,status=variable
new load.3000027164M1 bus1=RML1052757102.3.0,Phases=1,kv=0.127,kW=0.90728,pf=0.92,Vminpu=0.92,Vmaxpu=1.5,model=1,daily=RES2_1,status=variable
new load.3000027165M1 bus1=RML1052757151.1.2.3.0,Phases=3,kv=0.22,kW=0.69742,pf=0.92,Vminpu=0.92,Vmaxpu=1.5,model=1,daily=RES2_1,status=variable
new load.3000027166M1 bus1=RML1052757151.1.2.3.0,Phases=3,kv=0.22,kW=0.9875,pf=0.92,Vminpu=0.92,Vmaxpu=1.5,model=1,daily=RES2_1,status=variable
new load.3000027167M1 bus1=RML1052757144.2.3.0,Phases=2,kv=0.22,kW=1.96458,pf=0.92,Vminpu=0.92,Vmaxpu=1.5,model=1,daily=RES3_1,status=variable
new load.3000027168M1 bus1=RML1052757095.1.0,Phases=1,kv=0.127,kW=3.55878,pf=0.92,Vminpu=0.92,Vmaxpu=1.5,model=1,daily=RES3_1,status=variable
new load.3000027169M1 bus1=RML1052755485.1.2.3.0,Phases=3,kv=0.22,kW=0.93196,pf=0.92,Vminpu=0.92,Vmaxpu=1.5,model=1,daily=RES2_1,status=variable
new load.3000027170M1 bus1=RML1052755464.3.0,Phases=1,kv=0.127,kW=3.7198,pf=0.92,Vminpu=0.92,Vmaxpu=1.5,model=1,daily=RES3_1,status=variable
new load.3000027171M1 bus1=RML1052755478.1.2.0,Phases=2,kv=0.22,kW=0.87252,pf=0.92,Vminpu=0.92,Vmaxpu=1.5,model=1,daily=RES1_1,status=variable
new load.3000027172M1 bus1=RML1052755478.1.2.0,Phases=2,kv=0.22,kW=2.19002,pf=0.92,Vminpu=0.92,Vmaxpu=1.5,model=1,daily=RES3_1,status=variable
new load.3000027173M1 bus1=RML1052755534.1.2.3.0,Phases=3,kv=0.22,kW=0.9011,pf=0.92,Vminpu=0.92,Vmaxpu=1.5,model=1,daily=RES2_1,status=variable
new load.3000027174M1 bus1=RML1052755527.1.2.3.0,Phases=3,kv=0.22,kW=2.72142,pf=0.92,Vminpu=0.92,Vmaxpu=1.5,model=1,daily=RES3_1,status=variable
new load.3000027175M1 bus1=RML1052755513.1.2.3.0,Phases=3,kv=0.22,kW=0.5925,pf=0.92,Vminpu=0.92,Vmaxpu=1.5,model=1,daily=RES2_1,status=variable
new load.3000027176M1 bus1=RML1052755541.1.2.0,Phases=2,kv=0.22,kW=0.65422,pf=0.92,Vminpu=0.92,Vmaxpu=1.5,model=1,daily=RES2_1,status=variable
new load.3000027177M1 bus1=RML1052755555.2.0,Phases=1,kv=0.127,kW=0.64124,pf=0.92,Vminpu=0.92,Vmaxpu=1.5,model=1,daily=RES1_1,status=variable
new load.3000027178M1 bus1=RML1052755576.1.2.0,Phases=2,kv=0.22,kW=0.64124,pf=0.92,Vminpu=0.92,Vmaxpu=1.5,model=1,daily=RES1_1,status=variable
new load.3000027179M1 bus1=RML1052755674.1.2.3.0,Phases=3,kv=0.22,kW=0.84556,pf=0.92,Vminpu=0.92,Vmaxpu=1.5,model=1,daily=RES2_1,status=variable
new load.3000027180M1 bus1=RML1052755653.1.2.3.0,Phases=3,kv=0.22,kW=0.6833,pf=0.92,Vminpu=0.92,Vmaxpu=1.5,model=1,daily=RES1_1,status=variable
new load.3000027181M1 bus1=RML1052755695.1.2.3.0,Phases=3,kv=0.22,kW=0.8332,pf=0.92,Vminpu=0.92,Vmaxpu=1.5,model=1,daily=RES2_1,status=variable
new load.3000027182M1 bus1=RML1052758572.2.3.0,Phases=2,kv=0.22,kW=0.55548,pf=0.92,Vminpu=0.92,Vmaxpu=1.5,model=1,daily=RES2_1,status=variable
new load.3000027183M1 bus1=RML1052758516.1.2.3.0,Phases=3,kv=0.22,kW=0.54312,pf=0.92,Vminpu=0.92,Vmaxpu=1.5,model=1,daily=RES2_1,status=variable
new load.3000027184M1 bus1=RML1052758516.1.2.3.0,Phases=3,kv=0.22,kW=0.80234,pf=0.92,Vminpu=0.92,Vmaxpu=1.5,model=1,daily=RES2_1,status=variable
new load.3000027185M1 bus1=RML1052758537.1.2.3.0,Phases=3,kv=0.22,kW=0.64806,pf=0.92,Vminpu=0.92,Vmaxpu=1.5,model=1,daily=RES2_1,status=variable
new load.3000027186M1 bus1=RML1052758537.1.2.3.0,Phases=3,kv=0.22,kW=0.85172,pf=0.92,Vminpu=0.92,Vmaxpu=1.5,model=1,daily=RES2_1,status=variable
new load.3000027188M1 bus1=RML1052757291.1.3.0,Phases=2,kv=0.22,kW=0.62022,pf=0.92,Vminpu=0.92,Vmaxpu=1.5,model=1,daily=RES1_1,status=variable
new load.3000027189M1 bus1=RML1052757277.2.3.0,Phases=2,kv=0.22,kW=0.75298,pf=0.92,Vminpu=0.92,Vmaxpu=1.5,model=1,daily=RES2_1,status=variable
new load.3000027190M1 bus1=RML1052757270.1.0,Phases=1,kv=0.127,kW=0.5256,pf=0.92,Vminpu=0.92,Vmaxpu=1.5,model=1,daily=RES1_1,status=variable
new load.3000027191M1 bus1=RML1052757256.3.0,Phases=1,kv=0.127,kW=0.8147,pf=0.92,Vminpu=0.92,Vmaxpu=1.5,model=1,daily=RES2_1,status=variable
new load.3000027192M1 bus1=RML1052757263.1.2.0,Phases=2,kv=0.22,kW=0.60484,pf=0.92,Vminpu=0.92,Vmaxpu=1.5,model=1,daily=RES2_1,status=variable
new load.3000027194M1 bus1=RML1052757221.2.0,Phases=1,kv=0.127,kW=0.80234,pf=0.92,Vminpu=0.92,Vmaxpu=1.5,model=1,daily=RES2_1,status=variable
new load.3000027195M1 bus1=RML1052757235.1.2.3.0,Phases=3,kv=0.22,kW=0.90728,pf=0.92,Vminpu=0.92,Vmaxpu=1.5,model=1,daily=RES2_1,status=variable
new load.3000027196M1 bus1=RML1052757186.3.0,Phases=1,kv=0.127,kW=1.43316,pf=0.92,Vminpu=0.92,Vmaxpu=1.5,model=1,daily=RES3_1,status=variable
new load.3000027197M1 bus1=RML1052757172.1.0,Phases=1,kv=0.127,kW=0.40734,pf=0.92,Vminpu=0.92,Vmaxpu=1.5,model=1,daily=RES2_1,status=variable
new load.3000027198M1 bus1=RML1052757179.1.2.3.0,Phases=3,kv=0.22,kW=0.55714,pf=0.92,Vminpu=0.92,Vmaxpu=1.5,model=1,daily=RES1_1,status=variable
new load.3000027199M1 bus1=RML1052757193.1.2.0,Phases=2,kv=0.22,kW=5.26054,pf=0.92,Vminpu=0.92,Vmaxpu=1.5,model=1,daily=RES4_1,status=variable
new load.3000027201M1 bus1=RML1052757340.1.2.3.0,Phases=3,kv=0.22,kW=0.86406,pf=0.92,Vminpu=0.92,Vmaxpu=1.5,model=1,daily=RES2_1,status=variable
new load.3000027202M1 bus1=RML1052757354.1.0,Phases=1,kv=0.127,kW=4.02576,pf=0.92,Vminpu=0.92,Vmaxpu=1.5,model=1,daily=RES3_1,status=variable
new load.3000027203M1 bus1=RML1052758544.1.2.3.0,Phases=3,kv=0.22,kW=2.25442,pf=0.92,Vminpu=0.92,Vmaxpu=1.5,model=1,daily=RES3_1,status=variable
new load.3000027204M1 bus1=RML1052758733.1.2.3.0,Phases=3,kv=0.22,kW=0.33946,pf=0.92,Vminpu=0.92,Vmaxpu=1.5,model=1,daily=RES2_1,status=variable
new load.3000027205M1 bus1=RML1060335133.1.3.0,Phases=2,kv=0.22,kW=4.3339,pf=0.92,Vminpu=0.92,Vmaxpu=1.5,model=1,daily=RES5_2,status=variable
new load.3000027206M1 bus1=RML1052758782.1.2.3.0,Phases=3,kv=0.22,kW=0.56782,pf=0.92,Vminpu=0.92,Vmaxpu=1.5,model=1,daily=RES2_1,status=variable
new load.3000027207M1 bus1=RML1052758796.2.0,Phases=1,kv=0.127,kW=0.8332,pf=0.92,Vminpu=0.92,Vmaxpu=1.5,model=1,daily=RES2_1,status=variable
new load.3000027208M1 bus1=RML1052758824.1.2.0,Phases=2,kv=0.22,kW=2.09072,pf=0.92,Vminpu=0.92,Vmaxpu=1.5,model=1,daily=RES4_1,status=variable
new load.3000027209M1 bus1=RML1052758887.1.2.3.0,Phases=3,kv=0.22,kW=2.35508,pf=0.92,Vminpu=0.92,Vmaxpu=1.5,model=1,daily=COM3_1,status=variable
new load.3000027210M1 bus1=RML1052758880.1.2.0,Phases=2,kv=0.22,kW=0.95664,pf=0.92,Vminpu=0.92,Vmaxpu=1.5,model=1,daily=RES2_1,status=variable
new load.3000027212M1 bus1=RML1052758873.1.0,Phases=1,kv=0.127,kW=1.23438,pf=0.92,Vminpu=0.92,Vmaxpu=1.5,model=1,daily=RES2_1,status=variable
new load.3000027213M1 bus1=RML1052758894.2.3.0,Phases=2,kv=0.22,kW=0.75688,pf=0.92,Vminpu=0.92,Vmaxpu=1.5,model=1,daily=RES1_1,status=variable
new load.3000027214M1 bus1=RML1052758901.1.2.3.0,Phases=3,kv=0.22,kW=4.64006,pf=0.92,Vminpu=0.92,Vmaxpu=1.5,model=1,daily=RES4_1,status=variable
new load.3000027217M1 bus1=RML1052754946.1.2.3.0,Phases=3,kv=0.22,kW=0.32094,pf=0.92,Vminpu=0.92,Vmaxpu=1.5,model=1,daily=RES2_1,status=variable
new load.3000027218M1 bus1=RML1052754897.1.2.3.0,Phases=3,kv=0.22,kW=0.45202,pf=0.92,Vminpu=0.92,Vmaxpu=1.5,model=1,daily=RES1_1,status=variable
new load.3000027219M1 bus1=RML1052754918.2.0,Phases=1,kv=0.127,kW=0.68508,pf=0.92,Vminpu=0.92,Vmaxpu=1.5,model=1,daily=RES2_1,status=variable
new load.3000027220M1 bus1=RML1052754876.3.0,Phases=1,kv=0.127,kW=1.44104,pf=0.92,Vminpu=0.92,Vmaxpu=1.5,model=1,daily=RES5_2,status=variable
new load.3000027221M1 bus1=RML1052878853.1.2.3.0,Phases=3,kv=0.22,kW=0.93814,pf=0.92,Vminpu=0.92,Vmaxpu=1.5,model=1,daily=RES2_1,status=variable
new load.3000027222M1 bus1=RML1052878853.1.2.3.0,Phases=3,kv=0.22,kW=0.88258,pf=0.92,Vminpu=0.92,Vmaxpu=1.5,model=1,daily=RES2_1,status=variable
new load.3000027223M1 bus1=RML1052753364.1.2.3.0,Phases=3,kv=0.22,kW=0.92578,pf=0.92,Vminpu=0.92,Vmaxpu=1.5,model=1,daily=RES2_1,status=variable
new load.3000027224M1 bus1=RML1052753350.2.3.0,Phases=2,kv=0.22,kW=5.0717,pf=0.92,Vminpu=0.92,Vmaxpu=1.5,model=1,daily=RES4_1,status=variable
new load.3000027225M1 bus1=RML1052753343.2.3.0,Phases=2,kv=0.22,kW=0.48758,pf=0.92,Vminpu=0.92,Vmaxpu=1.5,model=1,daily=RES2_1,status=variable
new load.3000027226M1 bus1=RML1052753343.2.3.0,Phases=2,kv=0.22,kW=0.01234,pf=0.92,Vminpu=0.92,Vmaxpu=1.5,model=1,daily=RES2_1,status=variable
new load.3000027227M1 bus1=RML1052753413.2.3.0,Phases=2,kv=0.22,kW=0.99368,pf=0.92,Vminpu=0.92,Vmaxpu=1.5,model=1,daily=RES2_1,status=variable
new load.3000027228M1 bus1=RML1052753399.1.2.3.0,Phases=3,kv=0.22,kW=1.0986,pf=0.92,Vminpu=0.92,Vmaxpu=1.5,model=1,daily=RES2_1,status=variable
new load.3000027229M1 bus1=RML1052753441.1.2.3.0,Phases=3,kv=0.22,kW=3.2367,pf=0.92,Vminpu=0.92,Vmaxpu=1.5,model=1,daily=RES3_1,status=variable
new load.3000027230M1 bus1=RML1052753462.2.3.0,Phases=2,kv=0.22,kW=0.83938,pf=0.92,Vminpu=0.92,Vmaxpu=1.5,model=1,daily=RES2_1,status=variable
new load.3000027231M1 bus1=RML1052755835.1.2.3.0,Phases=3,kv=0.22,kW=0.03704,pf=0.92,Vminpu=0.92,Vmaxpu=1.5,model=1,daily=RES2_1,status=variable
new load.3000027232M1 bus1=RML1052755835.1.2.3.0,Phases=3,kv=0.22,kW=0.28382,pf=0.92,Vminpu=0.92,Vmaxpu=1.5,model=1,daily=RES1_1,status=variable
new load.3000027233M1 bus1=RML1052755849.1.3.0,Phases=2,kv=0.22,kW=0.53696,pf=0.92,Vminpu=0.92,Vmaxpu=1.5,model=1,daily=RES2_1,status=variable
new load.3000027235M1 bus1=RML1056090312.1.2.3.0,Phases=3,kv=0.22,kW=0.83046,pf=0.92,Vminpu=0.92,Vmaxpu=1.5,model=1,daily=RES1_1,status=variable
new load.3000027236M1 bus1=RML1052755926.2.3.0,Phases=2,kv=0.22,kW=0.74062,pf=0.92,Vminpu=0.92,Vmaxpu=1.5,model=1,daily=RES2_1,status=variable
new load.3000027237M1 bus1=RML1052755926.2.3.0,Phases=2,kv=0.22,kW=0.6172,pf=0.92,Vminpu=0.92,Vmaxpu=1.5,model=1,daily=RES2_1,status=variable
new load.3000027238M1 bus1=RML1052755975.1.2.0,Phases=2,kv=0.22,kW=0.41968,pf=0.92,Vminpu=0.92,Vmaxpu=1.5,model=1,daily=RES2_1,status=variable
new load.3000027239M1 bus1=RML1052756003.2.3.0,Phases=2,kv=0.22,kW=1.06774,pf=0.92,Vminpu=0.92,Vmaxpu=1.5,model=1,daily=RES2_1,status=variable
new load.3000027240M1 bus1=RML1052755982.1.3.0,Phases=2,kv=0.22,kW=0.75914,pf=0.92,Vminpu=0.92,Vmaxpu=1.5,model=1,daily=RES2_1,status=variable
new load.3000027241M1 bus1=RML1052756024.2.0,Phases=1,kv=0.127,kW=0.49376,pf=0.92,Vminpu=0.92,Vmaxpu=1.5,model=1,daily=RES2_1,status=variable
new load.3000027243M1 bus1=RML1052756038.2.3.0,Phases=2,kv=0.22,kW=0.49992,pf=0.92,Vminpu=0.92,Vmaxpu=1.5,model=1,daily=RES2_1,status=variable
new load.3000027244M1 bus1=RML1052756031.2.0,Phases=1,kv=0.127,kW=2.38324,pf=0.92,Vminpu=0.92,Vmaxpu=1.5,model=1,daily=RES3_1,status=variable
new load.3000027245M1 bus1=RML1052756017.1.2.3.0,Phases=3,kv=0.22,kW=0.5061,pf=0.92,Vminpu=0.92,Vmaxpu=1.5,model=1,daily=RES2_1,status=variable
new load.3000027246M1 bus1=RML1052755884.3.0,Phases=1,kv=0.127,kW=1.85184,pf=0.92,Vminpu=0.92,Vmaxpu=1.5,model=1,daily=RES3_1,status=variable
new load.3000027247M1 bus1=RML1052755968.1.2.0,Phases=2,kv=0.22,kW=3.44604,pf=0.92,Vminpu=0.92,Vmaxpu=1.5,model=1,daily=RES3_1,status=variable
new load.3000027248M1 bus1=RML1052755968.1.2.0,Phases=2,kv=0.22,kW=0.862,pf=0.92,Vminpu=0.92,Vmaxpu=1.5,model=1,daily=RES1_1,status=variable
new load.3000027249M1 bus1=RML1052755961.2.3.0,Phases=2,kv=0.22,kW=0.53696,pf=0.92,Vminpu=0.92,Vmaxpu=1.5,model=1,daily=RES2_1,status=variable
new load.3000027250M1 bus1=RML1052755961.2.3.0,Phases=2,kv=0.22,kW=0.59868,pf=0.92,Vminpu=0.92,Vmaxpu=1.5,model=1,daily=RES2_1,status=variable
new load.3000027251M1 bus1=RML1052755954.1.3.0,Phases=2,kv=0.22,kW=3.60708,pf=0.92,Vminpu=0.92,Vmaxpu=1.5,model=1,daily=RES3_1,status=variable
new load.3000027252M1 bus1=RML1052755954.1.3.0,Phases=2,kv=0.22,kW=1.25288,pf=0.92,Vminpu=0.92,Vmaxpu=1.5,model=1,daily=COM3_1,status=variable
new load.3000027253M1 bus1=RML1052755905.1.2.0,Phases=2,kv=0.22,kW=0.64188,pf=0.92,Vminpu=0.92,Vmaxpu=1.5,model=1,daily=RES2_1,status=variable
new load.3000027254M1 bus1=RML1052755912.1.2.0,Phases=2,kv=0.22,kW=0.87642,pf=0.92,Vminpu=0.92,Vmaxpu=1.5,model=1,daily=RES2_1,status=variable
new load.3000027255M1 bus1=RML1052755933.1.2.3.0,Phases=3,kv=0.22,kW=3.7198,pf=0.92,Vminpu=0.92,Vmaxpu=1.5,model=1,daily=RES3_1,status=variable
new load.3000027256M1 bus1=RML1052755863.1.2.3.0,Phases=3,kv=0.22,kW=0.58868,pf=0.92,Vminpu=0.92,Vmaxpu=1.5,model=1,daily=RES1_1,status=variable
new load.3000027257M1 bus1=RML1052755877.1.2.0,Phases=2,kv=0.22,kW=2.99516,pf=0.92,Vminpu=0.92,Vmaxpu=1.5,model=1,daily=RES3_1,status=variable
new load.3000027258M1 bus1=RML1052755877.1.2.0,Phases=2,kv=0.22,kW=0.7674,pf=0.92,Vminpu=0.92,Vmaxpu=1.5,model=1,daily=RES1_1,status=variable
new load.3000027259M1 bus1=RML1052755842.1.2.3.0,Phases=3,kv=0.22,kW=0.83938,pf=0.92,Vminpu=0.92,Vmaxpu=1.5,model=1,daily=RES2_1,status=variable
new load.3000027260M1 bus1=RML1052755828.1.3.0,Phases=2,kv=0.22,kW=1.0554,pf=0.92,Vminpu=0.92,Vmaxpu=1.5,model=1,daily=RES2_1,status=variable
new load.3000027261M1 bus1=RML1052755828.1.3.0,Phases=2,kv=0.22,kW=0.32712,pf=0.92,Vminpu=0.92,Vmaxpu=1.5,model=1,daily=RES2_1,status=variable
new load.3000027263M1 bus1=RML1052755821.1.2.3.0,Phases=3,kv=0.22,kW=0.31536,pf=0.92,Vminpu=0.92,Vmaxpu=1.5,model=1,daily=RES1_1,status=variable
new load.3000027264M1 bus1=RML1052753448.1.3.0,Phases=2,kv=0.22,kW=2.76972,pf=0.92,Vminpu=0.92,Vmaxpu=1.5,model=1,daily=RES3_1,status=variable
new load.3000027265M1 bus1=RML1052753448.1.3.0,Phases=2,kv=0.22,kW=0.431,pf=0.92,Vminpu=0.92,Vmaxpu=1.5,model=1,daily=RES1_1,status=variable
new load.3000027266M1 bus1=RML1052753434.1.2.0,Phases=2,kv=0.22,kW=3.2045,pf=0.92,Vminpu=0.92,Vmaxpu=1.5,model=1,daily=RES3_1,status=variable
new load.3000027267M1 bus1=RML1052753434.1.2.0,Phases=2,kv=0.22,kW=3.51046,pf=0.92,Vminpu=0.92,Vmaxpu=1.5,model=1,daily=RES3_1,status=variable
new load.3000027268M1 bus1=RML1052753427.1.3.0,Phases=2,kv=0.22,kW=0.49376,pf=0.92,Vminpu=0.92,Vmaxpu=1.5,model=1,daily=RES2_1,status=variable
new load.3000027269M1 bus1=RML1052753427.1.3.0,Phases=2,kv=0.22,kW=0.69126,pf=0.92,Vminpu=0.92,Vmaxpu=1.5,model=1,daily=RES2_1,status=variable
new load.3000027270M1 bus1=RML1052753427.1.3.0,Phases=2,kv=0.22,kW=0.50458,pf=0.92,Vminpu=0.92,Vmaxpu=1.5,model=1,daily=RES1_1,status=variable
new load.3000027271M1 bus1=RML1052753420.3.0,Phases=1,kv=0.127,kW=0.79,pf=0.92,Vminpu=0.92,Vmaxpu=1.5,model=1,daily=RES2_1,status=variable
new load.3000027272M1 bus1=RML1052753385.1.2.0,Phases=2,kv=0.22,kW=0.87642,pf=0.92,Vminpu=0.92,Vmaxpu=1.5,model=1,daily=RES2_1,status=variable
new load.3000027273M1 bus1=RML1052753357.1.2.3.0,Phases=3,kv=0.22,kW=0.31476,pf=0.92,Vminpu=0.92,Vmaxpu=1.5,model=1,daily=RES2_1,status=variable
new load.3000027274M1 bus1=RML1052753357.1.2.3.0,Phases=3,kv=0.22,kW=3.86472,pf=0.92,Vminpu=0.92,Vmaxpu=1.5,model=1,daily=RES3_1,status=variable
new load.3000027275M1 bus1=RML1052753371.1.3.0,Phases=2,kv=0.22,kW=3.38164,pf=0.92,Vminpu=0.92,Vmaxpu=1.5,model=1,daily=RES3_1,status=variable
new load.3000027276M1 bus1=RML1052753378.1.2.3.0,Phases=3,kv=0.22,kW=0.96282,pf=0.92,Vminpu=0.92,Vmaxpu=1.5,model=1,daily=RES2_1,status=variable
new load.3000027278M1 bus1=RML1052753266.2.3.0,Phases=2,kv=0.22,kW=3.7037,pf=0.92,Vminpu=0.92,Vmaxpu=1.5,model=1,daily=RES3_1,status=variable
...
